GMS MT3D Simulation
22 July 2018
         1        20        25         1         1         1
   d  ft  mg
 T T T F T F F F F F
 0
         0 500.00000                              
         0 500.00000                              
         0 100.00000                              
         0 100.00000                              
         0 0.1500000                              
         0         1                              
       100 1.0000000           (10G15.6)        -1
       0.000000       0.000000       0.000000       0.000000       0.000000       0.000000       0.000000       0.000000       0.000000       0.000000
       0.000000       0.000000       0.000000       0.000000       0.000000       0.000000       0.000000       0.000000       0.000000       0.000000
       0.000000       0.000000       0.000000       0.000000       0.000000
       0.000000       0.000000       0.000000       0.000000       0.000000       0.000000       0.000000       0.000000       0.000000       0.000000
       0.000000       0.000000       0.000000       0.000000       0.000000       0.000000       0.000000       0.000000       0.000000       0.000000
       0.000000       0.000000       0.000000       0.000000       0.000000
       0.000000       0.000000       0.000000       0.000000       0.000000       0.000000       0.000000       0.000000       0.000000       0.000000
       0.000000       0.000000       0.000000       0.000000       0.000000       0.000000       0.000000       0.000000       0.000000       0.000000
       0.000000       0.000000       0.000000       0.000000       0.000000
       0.000000       0.000000       0.000000       0.000000       0.000000       0.000000       0.000000       0.000000       0.000000       0.000000
       0.000000       0.000000       0.000000       0.000000       0.000000       0.000000       0.000000       0.000000       0.000000       0.000000
       0.000000       0.000000       0.000000       0.000000       0.000000
       0.000000       0.000000       0.000000       0.001000       0.003000       0.005000       0.007000       0.008000       0.007000       0.006000
       0.004000       0.002000       0.001000       0.000000       0.000000       0.000000       0.000000       0.000000       0.000000       0.000000
       0.000000       0.000000       0.000000       0.000000       0.000000
       0.000000       0.002000       0.006000       0.019000       0.043000       0.075000       0.107000       0.126000       0.125000       0.106000
       0.075000       0.045000       0.022000       0.008000       0.002000       0.000000       0.000000       0.000000       0.000000       0.000000
       0.000000       0.000000       0.000000       0.000000       0.000000
       0.000000       0.024000       0.082000       0.246000       0.584000       1.004000       1.361000       1.553000       1.531000       1.309000
       0.967000       0.610000       0.325000       0.142000       0.050000       0.014000       0.003000       0.000000       0.000000       0.000000
       0.000000       0.000000       0.000000       0.000000       0.000000
       0.000000       0.202000       0.769000       2.526000       6.339000      10.380000      12.847000      13.513000      12.652000      10.613000
       7.918000       5.190000       2.943000       1.418000       0.568000       0.184000       0.047000       0.009000       0.001000       0.000000
       0.000000       0.000000       0.000000       0.000000       0.000000
       0.000000       1.000000       4.372000      16.252000      43.120000      67.491000      74.319000      68.144000      57.172000      44.884000
      32.593000      21.485000      12.614000       6.470000       2.840000       1.043000       0.312000       0.073000       0.013000       0.002000
       0.000000       0.000000       0.000000       0.000000       0.000000
       0.000000       0.202000       0.769000       2.526000       6.339000      10.382000      12.852000      13.521000      12.662000      10.625000
       7.930000       5.200000       2.950000       1.422000       0.570000       0.185000       0.047000       0.009000       0.001000       0.000000
       0.000000       0.000000       0.000000       0.000000       0.000000
       0.000000       0.024000       0.082000       0.246000       0.585000       1.005000       1.362000       1.556000       1.534000       1.312000
       0.970000       0.613000       0.326000       0.143000       0.051000       0.014000       0.003000       0.000000       0.000000       0.000000
       0.000000       0.000000       0.000000       0.000000       0.000000
       0.000000       0.002000       0.006000       0.019000       0.043000       0.075000       0.107000       0.126000       0.126000       0.106000
       0.076000       0.045000       0.022000       0.008000       0.002000       0.000000       0.000000       0.000000       0.000000       0.000000
       0.000000       0.000000       0.000000       0.000000       0.000000
       0.000000       0.000000       0.000000       0.001000       0.003000       0.005000       0.007000       0.008000       0.008000       0.006000
       0.004000       0.002000       0.001000       0.000000       0.000000       0.000000       0.000000       0.000000       0.000000       0.000000
       0.000000       0.000000       0.000000       0.000000       0.000000
       0.000000       0.000000       0.000000       0.000000       0.000000       0.000000       0.000000       0.000000       0.000000       0.000000
       0.000000       0.000000       0.000000       0.000000       0.000000       0.000000       0.000000       0.000000       0.000000       0.000000
       0.000000       0.000000       0.000000       0.000000       0.000000
       0.000000       0.000000       0.000000       0.000000       0.000000       0.000000       0.000000       0.000000       0.000000       0.000000
       0.000000       0.000000       0.000000       0.000000       0.000000       0.000000       0.000000       0.000000       0.000000       0.000000
       0.000000       0.000000       0.000000       0.000000       0.000000
       0.000000       0.000000       0.000000       0.000000       0.000000       0.000000       0.000000       0.000000       0.000000       0.000000
       0.000000       0.000000       0.000000       0.000000       0.000000       0.000000       0.000000       0.000000       0.000000       0.000000
       0.000000       0.000000       0.000000       0.000000       0.000000
       0.000000       0.000000       0.000000       0.000000       0.000000       0.000000       0.000000       0.000000       0.000000       0.000000
       0.000000       0.000000       0.000000       0.000000       0.000000       0.000000       0.000000       0.000000       0.000000       0.000000
       0.000000       0.000000       0.000000       0.000000       0.000000
       0.000000       0.000000       0.000000       0.000000       0.000000       0.000000       0.000000       0.000000       0.000000       0.000000
       0.000000       0.000000       0.000000       0.000000       0.000000       0.000000       0.000000       0.000000       0.000000       0.000000
       0.000000       0.000000       0.000000       0.000000       0.000000
       0.000000       0.000000       0.000000       0.000000       0.000000       0.000000       0.000000       0.000000       0.000000       0.000000
       0.000000       0.000000       0.000000       0.000000       0.000000       0.000000       0.000000       0.000000       0.000000       0.000000
       0.000000       0.000000       0.000000       0.000000       0.000000
       0.000000       0.000000       0.000000       0.000000       0.000000       0.000000       0.000000       0.000000       0.000000       0.000000
       0.000000       0.000000       0.000000       0.000000       0.000000       0.000000       0.000000       0.000000       0.000000       0.000000
       0.000000       0.000000       0.000000       0.000000       0.000000
 -999.0000
         0         0         0         0         T
         0
         0
         T
 1825.0000         1 1.0000000
       0.0      1000 1.0000000       0.0
