MT3DSUP
BTN "Estcp.btn"
FLO "..\Estcp_MODFLOW\Estcp.hff"
ADV "Estcp.adv"
DSP "Estcp.dsp"
SSM "Estcp.ssm"
GCG "Estcp.gcg"
CHK Y
OUT "Estcp.out"
CON "Estcp.con"
DSS "Estcp.dss"
SPC "species_1" 1 1
RUNOPTIONS 0 "Undefined"
GMSTOB_OPTIONS 1 0
ORIG    0.0 0.0 0.0
ROTZ 0
LAYER   0
      1.0000 
DMAT 1
MPOR 1 0 0.3
MLD 1 0 0.0
HTOPEQ1 1
REFTIME  s 0 1900 1 1 0 0 0
UNITS "ft"	"d"	"mg"	"N"	"mg/l"
